Circuit: * C:\Users\Ketaki Mahajan\OneDrive\Desktop\sem 3\NSS\lab\exp2\Draft1.asc

Instance "m1": Length shorter than recommended for a level 1 MOSFET.
Instance "m1": Width narrower than recommended for a level 1 MOSFET.
vgg: Missing value, assumed 0V @ DC
vdd: Missing value, assumed 0V @ DC
.OP point found by inspection.
.step vgg=0
.step vgg=0.5
.step vgg=1
.step vgg=1.5
.step vgg=2
.step vgg=2.5
.step vgg=3
.step vgg=3.5
.step vgg=4

Date: Wed Sep 20 15:42:51 2023
Total elapsed time: 0.139 seconds.

tnom = 27
temp = 27
method = trap
totiter = 2731
traniter = 0
tranpoints = 0
accept = 0
rejected = 0
matrix size = 6
fillins = 0
solver = Normal
Avg thread counts: 2.5/0.0/3.9/2.5
Matrix Compiler1:       9 opcodes  0.1/[0.1]/0.1
Matrix Compiler2: off  [0.1]/0.1/0.1

