Circuit: * C:\Users\Ketaki Mahajan\OneDrive\Desktop\sem 3\NSS\lab\exp2\exp2_plq_16014022050.asc

Direct Newton iteration for .op point succeeded.

Date: Fri Sep  1 07:33:28 2023
Total elapsed time: 0.030 seconds.

tnom = 27
temp = 27
method = trap
totiter = 3
traniter = 0
tranpoints = 0
accept = 0
rejected = 0
matrix size = 5
fillins = 2
solver = Normal
Avg thread counts: 12.0/0.0/12.0/12.0
Matrix Compiler1: 168 bytes object code size
Matrix Compiler2: 321 bytes object code size
