Circuit: * C:\Users\Ketaki Mahajan\OneDrive\Desktop\sem 3\NSS\lab\exp2\exp2_thev_16014022050.asc

Direct Newton iteration for .op point succeeded.

Date: Fri Sep  1 07:00:46 2023
Total elapsed time: 0.032 seconds.

tnom = 27
temp = 27
method = trap
totiter = 3
traniter = 0
tranpoints = 0
accept = 0
rejected = 0
matrix size = 6
fillins = 1
solver = Normal
Avg thread counts: 12.0/0.0/12.0/12.0
Matrix Compiler1: 218 bytes object code size
Matrix Compiler2: 394 bytes object code size
