Circuit: * C:\Users\Ketaki Mahajan\OneDrive\Desktop\sem 3\NSS\lab\exp2\exp2_16014022050.asc

Direct Newton iteration for .op point succeeded.

Date: Wed Aug 16 15:31:23 2023
Total elapsed time: 0.012 seconds.

tnom = 27
temp = 27
method = trap
totiter = 3
traniter = 0
tranpoints = 0
accept = 0
rejected = 0
matrix size = 5
fillins = 1
solver = Normal
Avg thread counts: 12.0/0.0/12.0/12.0
Matrix Compiler1: 186 bytes object code size
Matrix Compiler2: 341 bytes object code size
