Circuit: * C:\Users\Ketaki Mahajan\OneDrive\Desktop\sem 3\NSS\lab\exp1\exp1_plq.asc

Direct Newton iteration for .op point succeeded.

Date: Wed Aug  9 23:39:06 2023
Total elapsed time: 0.042 seconds.

tnom = 27
temp = 27
method = trap
totiter = 3
traniter = 0
tranpoints = 0
accept = 0
rejected = 0
matrix size = 14
fillins = 10
solver = Normal
Avg thread counts: 12.0/0.0/12.0/12.0
Matrix Compiler1: 922 bytes object code size
Matrix Compiler2: 1.06 KB object code size
