Circuit: * C:\Users\Ketaki Mahajan\Downloads\exp1_1_16014022050.asc

Direct Newton iteration for .op point succeeded.

Date: Wed Aug  9 21:24:47 2023
Total elapsed time: 0.044 seconds.

tnom = 27
temp = 27
method = trap
totiter = 3
traniter = 0
tranpoints = 0
accept = 0
rejected = 0
matrix size = 8
fillins = 1
solver = Normal
Avg thread counts: 12.0/0.0/12.0/12.0
Matrix Compiler1: 318 bytes object code size
Matrix Compiler2: 534 bytes object code size
